**** Created by MC2: Version 2006.09.01.d on 2024/04/08, 13:50:44 

*****************************************************************************
* CDL NETLIST:
* CELL NAME: LEAFCELL
* NETLISTED ON: DEC 15 15:43:47 2005
*****************************************************************************


*****************************************************************************
* GLOBAL NET DECLARATIONS
*****************************************************************************
*.GLOBAL VDD GND


*****************************************************************************
* PIN CONTROL STATEMENT
*****************************************************************************
*.PIN VDD GND


*****************************************************************************
* BIPOLAR DECLARATIONS
*****************************************************************************


*.LDD
*.BIPOLAR 
*.DIOAREA

*.OPTION SCALE=10E-6

*****************************************************************************
* PARAMETER STATEMENT
*****************************************************************************
.PARAM


*******************************************************************************
* SUB-CIRCUIT NETLIST:                                                        *
*                                                                             *
* BLOCK: BLTRK_DMY                                                            *
* LAST TIME SAVED: OCT 12 13:39:22 2005                                       *
*******************************************************************************
.SUBCKT S11000X8_BLTRK_DMY FLOAT TRBL TRWL WL
MN0 BL0_IN NET37 GND GND NCHPD_HVTSR W=0.14U  L=0.065U 
MN1 NET37 BL0_IN GND GND NCHPD_HVTSR W=0.14U  L=0.065U 
MN2 TRBL TRWL BL0_IN GND NCHPG_HVTSR W=0.09U  L=0.075U
MN3 FLOAT WL NET37 GND NCHPG_HVTSR W=0.09U  L=0.075U
MP0 NET37 BL0_IN VDD VDD PCHPU_HVTSR W=0.08U  L=0.065U 
MP1 BL0_IN NET37 VDD VDD PCHPU_HVTSR W=0.08U  L=0.065U 
.ENDS S11000X8_BLTRK_DMY


*******************************************************************************
* SUB-CIRCUIT NETLIST:                                                        *
*                                                                             *
* BLOCK: BLTRK_EDG                                                            *
* LAST TIME SAVED: JUN 30 15:24:03 2005                                       *
*******************************************************************************
.SUBCKT S11000X8_BLTRK_EDG BL_CONT TRWL
MN0 BL0_IN NET37 GND GND NCHPD_HVTSR W=0.14U  L=0.065U 
MN1 NET37 BL0_IN GND GND NCHPD_HVTSR W=0.14U  L=0.065U 
MN2 BL_CONT TRWL BL0_IN GND NCHPG_HVTSR W=0.09U  L=0.075U
MP0 NET37 BL0_IN VDD VDD PCHPU_HVTSR W=0.08U  L=0.065U 
MP1 BL0_IN NET37 VDD VDD PCHPU_HVTSR W=0.08U  L=0.065U 
.ENDS S11000X8_BLTRK_EDG


*******************************************************************************
* SUB-CIRCUIT NETLIST:                                                        *
*                                                                             *
* BLOCK: TRKDUM                                                               *
* LAST TIME SAVED: OCT 12 13:39:16 2005                                       *
*******************************************************************************
.SUBCKT S11000X8_TRKDUM BL_CONT FLOAT TRBL TIEL WL
XBLTRK FLOAT TRBL TIEL WL S11000X8_BLTRK_DMY
XI14 BL_CONT TIEL S11000X8_BLTRK_EDG
.ENDS S11000X8_TRKDUM


*******************************************************************************
* SUB-CIRCUIT NETLIST:                                                        *
*                                                                             *
* BLOCK: TRKDUMX2                                                             *
* LAST TIME SAVED: OCT  4 16:07:09 2005                                       *
*******************************************************************************
.SUBCKT S11000X8_TRKDUMX2 BL_CONT[1] BL_CONT[0] TRBL TIEL WL[1] WL[0]
XI45 BL_CONT[1] NET12 TRBL TIEL WL[1] S11000X8_TRKDUM
XI46 BL_CONT[0] NET12 TRBL TIEL WL[0] S11000X8_TRKDUM
.ENDS S11000X8_TRKDUMX2


*******************************************************************************
* SUB-CIRCUIT NETLIST:                                                        *
*                                                                             *
* BLOCK: BLTRK                                                                *
* LAST TIME SAVED: OCT  4 16:01:28 2005                                       *
*******************************************************************************
.SUBCKT S11000X8_BLTRK FLOAT TRBL TRBLB TRWL WL
MN0 BL0_IN TRBLB GND GND NCHPD_HVTSR W=0.14U  L=0.065U 
MN1 NET42 BL0_IN GND GND NCHPD_HVTSR W=0.14U  L=0.065U 
MN2 TRBL TRWL BL0_IN GND NCHPG_HVTSR W=0.09U  L=0.075U
MN3 FLOAT WL NET42 GND NCHPG_HVTSR W=0.09U  L=0.075U
MP0 TRBLB BL0_IN VDD VDD PCHPU_HVTSR W=0.08U  L=0.065U 
MP1 BL0_IN TRBLB VDD VDD PCHPU_HVTSR W=0.08U  L=0.065U 
.ENDS S11000X8_BLTRK


*******************************************************************************
* SUB-CIRCUIT NETLIST:                                                        *
*                                                                             *
* BLOCK: BLTRK_EDG2                                                           *
* LAST TIME SAVED: JUN 30 15:51:02 2005                                       *
*******************************************************************************
.SUBCKT S11000X8_BLTRK_EDG2 BL_CONT BL0_IN NPD2 PPU1 PPU2 TRWL
MN2 BL_CONT TRWL BL0_IN GND NCHPG_HVTSR W=0.09U  L=0.075U
MN0 BL0_IN TRWL GND GND NCHPD_HVTSR W=0.14U  L=0.065U 
MN1 NPD2 TRWL GND GND NCHPD_HVTSR W=0.14U  L=0.065U 
MP0 PPU2 TRWL VDD VDD PCHPU_HVTSR W=0.08U  L=0.065U 
MP1 PPU1 TRWL VDD VDD PCHPU_HVTSR W=0.08U  L=0.065U 
.ENDS S11000X8_BLTRK_EDG2


*******************************************************************************
* SUB-CIRCUIT NETLIST:                                                        *
*                                                                             *
* BLOCK: TRKNOR                                                               *
* LAST TIME SAVED: OCT  4 16:04:22 2005                                       *
*******************************************************************************
.SUBCKT S11000X8_TRKNOR BL_CONT FLOAT TRBL TIEH TRWL WL
XCELTRK FLOAT TRBL TIEH TRWL WL S11000X8_BLTRK
XI18 BL_CONT NET22 NET23 NET20 NET21 TRWL S11000X8_BLTRK_EDG2
.ENDS S11000X8_TRKNOR


*******************************************************************************
* SUB-CIRCUIT NETLIST:                                                        *
*                                                                             *
* BLOCK: TRKNORX2                                                             *
* LAST TIME SAVED: JUL  7 17:14:05 2005                                       *
*******************************************************************************
.SUBCKT S11000X8_TRKNORX2 BL_CONT[1] BL_CONT[0] TRBL TIEH TRWL WL[1] WL[0]
XI52 BL_CONT[1] NET17 TRBL TIEH TRWL WL[1] S11000X8_TRKNOR
XI51 BL_CONT[0] NET17 TRBL TIEH TRWL WL[0] S11000X8_TRKNOR
.ENDS S11000X8_TRKNORX2


*******************************************************************************
* SUB-CIRCUIT NETLIST:                                                        *
*                                                                             *
* BLOCK: BLTRKMIN                                                             *
* LAST TIME SAVED: MAY 17 15:57:20 2005                                       *
*******************************************************************************
.SUBCKT S11000X8_BLTRKMIN TRBL TRBLB TRWL WL
MN0 BL0_IN TRWL GND GND NCHPD_HVTSR W=0.14U  L=0.065U 
MN1 NET41 BL0_IN GND GND NCHPD_HVTSR W=0.14U  L=0.065U 
MN2 TRBL TRBL BL0_IN GND NCHPG_HVTSR W=0.09U  L=0.075U
MN3 TRBLB WL NET41 GND NCHPG_HVTSR W=0.09U  L=0.075U
MP0 NET41 BL0_IN VDD VDD PCHPU_HVTSR W=0.08U  L=0.065U 
MP1 BL0_IN TRWL VDD VDD PCHPU_HVTSR W=0.08U  L=0.065U 
.ENDS S11000X8_BLTRKMIN


*******************************************************************************
* SUB-CIRCUIT NETLIST:                                                        *
*                                                                             *
* BLOCK: BLTRKMIN_EDG                                                         *
* LAST TIME SAVED: JUL  1 10:37:26 2005                                       *
*******************************************************************************
.SUBCKT S11000X8_BLTRKMIN_EDG BL_CONT TRBL TRWL
MN0 BL0_IN TRWL GND GND NCHPD_HVTSR W=0.14U  L=0.065U 
MN1 TRWL BL0_IN GND GND NCHPD_HVTSR W=0.14U  L=0.065U 
MN2 BL_CONT TRBL BL0_IN GND NCHPG_HVTSR W=0.09U  L=0.075U
MP0 TRWL BL0_IN VDD VDD PCHPU_HVTSR W=0.08U  L=0.065U 
MP1 BL0_IN TRWL VDD VDD PCHPU_HVTSR W=0.08U  L=0.065U 
.ENDS S11000X8_BLTRKMIN_EDG


*******************************************************************************
* SUB-CIRCUIT NETLIST:                                                        *
*                                                                             *
* BLOCK: TRKMIN                                                               *
* LAST TIME SAVED: OCT 12 14:09:32 2005                                       *
*******************************************************************************
.SUBCKT S11000X8_TRKMIN BL_CONT TRBL TIEH TRWL WL
XTRK_VCCMIN TRBL TIEH TRWL WL S11000X8_BLTRKMIN
XI23 BL_CONT TRBL TRWL S11000X8_BLTRKMIN_EDG
.ENDS S11000X8_TRKMIN


*******************************************************************************
* SUB-CIRCUIT NETLIST:                                                        *
*                                                                             *
* BLOCK: TRKMINX2                                                             *
* LAST TIME SAVED: OCT 12 14:09:24 2005                                       *
*******************************************************************************
.SUBCKT S11000X8_TRKMINX2 BL_CONT[1] BL_CONT[0] TRBL TIEH TRWL WL[1] WL[0]
XI47 BL_CONT[0] TRBL TIEH TRWL WL[0] S11000X8_TRKMIN
XI46 BL_CONT[1] TRBL TIEH TRWL WL[1] S11000X8_TRKMIN
.ENDS S11000X8_TRKMINX2


*******************************************************************************
* SUB-CIRCUIT NETLIST:                                                        *
*                                                                             *
* BLOCK: SINV_HVTP                                                            *
* LAST TIME SAVED: AUG  3 14:45:00 2005                                       *
*******************************************************************************
.SUBCKT S11000X8_SINV_HVTP Y A LN=0.06U WN=0.15U LP=0.06U WP=0.3U
M1 VDD A Y VDD PCH_HVT W=WP L=LP
M0 Y A GND GND NCH W=WN L=LN
.ENDS S11000X8_SINV_HVTP


*******************************************************************************
* SUB-CIRCUIT NETLIST:                                                        *
*                                                                             *
* BLOCK: SRAM_TIEH                                                            *
* LAST TIME SAVED: OCT 19 14:27:29 2005                                       *
*******************************************************************************
.SUBCKT S11000X8_SRAM_TIEH Z
XI50 Z NET18 S11000X8_SINV_HVTP LN=0.07U WN=2U LP=0.07U WP=8U
MN0 NET18 NET32 GND GND NCH W=0.15U L=0.07U
MP0 VDD NET32 NET32 VDD PCH W=0.3U L=0.07U
MP1 NET32 NET18 VDD VDD PCH W=0.3U L=0.07U
.ENDS S11000X8_SRAM_TIEH


*******************************************************************************
* SUB-CIRCUIT NETLIST:                                                        *
*                                                                             *
* BLOCK: SINV                                                                 *
* LAST TIME SAVED: APR 15 08:08:15 2005                                       *
*******************************************************************************
.SUBCKT S11000X8_SINV Y A LP=0.06U WP=0.3U LN=0.06U WN=0.15U
M0 Y A GND GND NCH W=WN L=LN
M1 VDD A Y VDD PCH W=WP L=LP
.ENDS S11000X8_SINV


*******************************************************************************
* SUB-CIRCUIT NETLIST:                                                        *
*                                                                             *
* BLOCK: SNAND3                                                               *
* LAST TIME SAVED: APR 18 16:13:20 2005                                       *
*******************************************************************************
.SUBCKT S11000X8_SNAND3 Y A B C LP3=0.06U WP3=0.3U LP2=0.06U WP2=0.3U LP1=0.06U WP1=0.3U
+LN1=0.06U WN1=0.45U LN2=0.06U WN2=0.45U LN3=0.06U WN3=0.45U
M0 NET14 C GND GND NCH W=WN3 L=LN3
M1 NET17 B NET14 GND NCH W=WN2 L=LN2
M2 Y A NET17 GND NCH W=WN1 L=LN1
M3 VDD A Y VDD PCH W=WP1 L=LP1
M4 VDD B Y VDD PCH W=WP2 L=LP2
M5 VDD C Y VDD PCH W=WP3 L=LP3
.ENDS S11000X8_SNAND3


*******************************************************************************
* SUB-CIRCUIT NETLIST:                                                        *
*                                                                             *
* BLOCK: XDRV                                                                 *
* LAST TIME SAVED: DEC 14 16:50:11 2005                                       *
*******************************************************************************
.SUBCKT S11000X8_XDRV WLOUT[1] WLOUT[0] WLPY WLPYB0 WLPYB1 XPD0 XPD0B XPD1 XPD2
XI288 MWL1 MWL0 S11000X8_SINV LP=0.06U WP=0.8U  LN=0.06U WN=0.8U 
XI295 MWL1A MWL0A S11000X8_SINV LP=0.06U WP=0.8U  LN=0.06U WN=0.8U 
XI296 WLOUT[1] MWL2A S11000X8_SINV_HVTP LN=0.06U WN=5U    LP=0.06U WP=10U    M=2
XI275 WLOUT[0] MWL2 S11000X8_SINV_HVTP LN=0.06U WN=5U    LP=0.06U WP=10U    M=2
MN0 MWL2 MWL1 WLPY GND NCH W=2.0U   L=0.06U
MN1 MWL2A MWL1A WLPY GND NCH W=2.0U   L=0.06U
MP0 VDD MWL1 MWL2 VDD PCH W=2.0U   L=0.06U
MP2 VDD MWL1A MWL2A VDD PCH W=2.0U   L=0.06U
MP3 MWL2A WLPYB0 VDD VDD PCH W=2.0U      L=0.06U
MP1 MWL2 WLPYB1 VDD VDD PCH W=2.0U      L=0.06U
XI290 MWL0A XPD2 XPD1 XPD0B S11000X8_SNAND3 LP3=0.06U WP3=0.15U  LP2=0.06U WP2=0.15U
+LP1=0.06U WP1=0.15U  LN1=0.06U WN1=0.15U  LN2=0.06U WN2=0.15U LN3=0.06U
+WN3=0.15U 
XI282 MWL0 XPD2 XPD1 XPD0 S11000X8_SNAND3 LP3=0.06U WP3=0.15U  LP2=0.06U WP2=0.15U
+LP1=0.06U WP1=0.15U  LN1=0.06U WN1=0.15U  LN2=0.06U WN2=0.15U LN3=0.06U
+WN3=0.15U 
**C2 MWL2 GND 10.372F
**C4 MWL1 GND 3.209F
**C3 MWL0 GND 2.040F
**C5 MWL2A GND 9.991F
**C6 MWL1A GND 3.359F
**C7 MWL0A GND 2.282F
.ENDS S11000X8_XDRV


*******************************************************************************
* SUB-CIRCUIT NETLIST:                                                        *
*                                                                             *
* BLOCK: XDRVX2                                                               *
* LAST TIME SAVED: JUN 13 11:08:29 2005                                       *
*******************************************************************************
.SUBCKT S11000X8_XDRVX2 WL[3] WL[2] WL[1] WL[0] WLPY WLPYB0 WLPYB1 XPD0[3] XPD0[2]
+XPD0[1] XPD0[0] XPD1 XPD2
XWLDRV_0 WL[1] WL[0] WLPY WLPYB0 WLPYB1 XPD0[0] XPD0[1] XPD1 XPD2 S11000X8_XDRV
XWLDRV_1 WL[2] WL[3] WLPY WLPYB0 WLPYB1 XPD0[3] XPD0[2] XPD1 XPD2 S11000X8_XDRV
.ENDS S11000X8_XDRVX2


*******************************************************************************
* SUB-CIRCUIT NETLIST:                                                        *
*                                                                             *
* BLOCK: IOYPASS_M16                                                          *
* LAST TIME SAVED: OCT 12 14:13:51 2005                                       *
*******************************************************************************
.SUBCKT S11000X8_IOYPASS_M16 BL BLB DL DLB BLEQB YSEL
*MN0 BL YSEL DL GND NCH W=0.8U L=0.06U
MN0 BL YSEL DL GND NCH W=0.89U L=0.06U
*MN1 BLB YSEL DLB GND NCH W=0.8U L=0.06U
MN1 BLB YSEL DLB GND NCH W=0.89U L=0.06U
MP2 BLB BLEQB BL VDD PCH W=2U L=0.06U
MP0 BL NET47 DL VDD PCH W=0.8U L=0.06U
MP3 VDD BLEQB BLB VDD PCH W=2U L=0.06U
MP1 BLB NET47 DLB VDD PCH W=0.8U L=0.06U
MP4 BL BLEQB VDD VDD PCH W=2U L=0.06U
XI9 NET47 YSEL S11000X8_SINV LP=0.07U WP=0.4U LN=0.07U WN=0.24U
.ENDS S11000X8_IOYPASS_M16


*******************************************************************************
* SUB-CIRCUIT NETLIST:                                                        *
*                                                                             *
* BLOCK: DIN                                                                  *
* LAST TIME SAVED: DEC 14 16:50:06 2005                                       *
*******************************************************************************
.SUBCKT S11000X8_DIN AWTD BWEB_M D_M BIST BWEB BWEBM D DM
XI13 BIST_BB BIST_B S11000X8_SINV LP=0.07U WP=0.30U LN=0.07U WN=0.15U
XI12 BIST_B BIST S11000X8_SINV LP=0.07U WP=0.30U LN=0.07U WN=0.15U
XI293 BWEB_M NET16 S11000X8_SINV LP=0.07U WP=0.6U LN=0.07U WN=0.3U
XI344 BWC BWT S11000X8_SINV LP=0.15U WP=0.28U LN=0.15U WN=0.15U
XI241 NET14 BWC S11000X8_SINV LP=0.15U WP=0.28U LN=0.15U WN=0.15U
XI242 NET16 NET14 S11000X8_SINV LP=0.1U WP=0.28U LN=0.1U WN=0.15U
XI343 BWT NET107 S11000X8_SINV LP=0.15U WP=0.28U LN=0.15U WN=0.15U
XI85 DT NET110 S11000X8_SINV LP=0.1U WP=0.3U LN=0.1U WN=0.15U
XI83 DC DT S11000X8_SINV LP=0.1U WP=0.3U LN=0.1U WN=0.15U
XI59 D_M NET26 S11000X8_SINV LP=0.07U WP=1.2U LN=0.07U WN=0.6U
XI84 NET26 DC S11000X8_SINV LP=0.2U WP=0.6U LN=0.2U WN=0.3U
**C11 BIST_BB GND 1.596F
**C13 BIST_B GND 1.310F
**C37 NET14 GND 0.680F
**C53 NET16 GND 0.860F
**C23 BWC GND 1.411F
**C14 BWT GND 1.879F
**C12 NET107 GND 1.155F
**C9 DT GND 2.044F
**C2 NET26 GND 1.135F
**C1 DC GND 1.509F
**C10 NET110 GND 1.392F
MP9 NET51 DC AWTD VDD PCH W=0.42U L=0.07U
MP8 VDD BWT NET51 VDD PCH W=0.42U L=0.07U
MP5 VDD BWC NET59 VDD PCH W=0.42U L=0.07U
MP4 NET59 DT AWTD VDD PCH W=0.42U L=0.07U
MP3 NET62 BIST_B NET107 VDD PCH W=0.3U L=0.06U
MP7 VDD BWEBM NET62 VDD PCH W=0.3U L=0.06U
MP1 VDD BWEB NET71 VDD PCH W=0.3U L=0.06U
MP0 NET71 BIST_BB NET107 VDD PCH W=0.3U L=0.06U
MP15 NET74 BIST_BB NET110 VDD PCH W=0.3U L=0.06U
MP14 VDD D NET74 VDD PCH W=0.3U L=0.06U
MP2 VDD DM NET83 VDD PCH W=0.3U L=0.06U
MP6 NET83 BIST_B NET110 VDD PCH W=0.3U L=0.06U
MN7 NET86 BWT GND GND NCH W=0.21U L=0.07U
MN5 AWTD BWC NET86 GND NCH W=0.21U L=0.07U
MN4 AWTD DT NET86 GND NCH W=0.21U L=0.07U
MN3 NET86 DC GND GND NCH W=0.21U L=0.07U
MN6 NET98 BWEBM GND GND NCH W=0.15U L=0.06U
MN2 NET101 BWEB GND GND NCH W=0.15U L=0.06U
MN1 NET107 BIST_BB NET98 GND NCH W=0.15U L=0.06U
MN0 NET107 BIST_B NET101 GND NCH W=0.15U L=0.06U
MN15 NET110 BIST_B NET116 GND NCH W=0.15U L=0.06U
MN14 NET110 BIST_BB NET119 GND NCH W=0.15U L=0.06U
MN13 NET116 D GND GND NCH W=0.15U L=0.06U
MN9 NET119 DM GND GND NCH W=0.15U L=0.06U
.ENDS S11000X8_DIN


*******************************************************************************
* SUB-CIRCUIT NETLIST:                                                        *
*                                                                             *
* BLOCK: SNOR                                                                 *
* LAST TIME SAVED: APR 15 09:10:54 2005                                       *
*******************************************************************************
.SUBCKT S11000X8_SNOR Y A B LP1=0.06U WP1=0.6U LP2=0.06U WP2=0.6U LN2=0.06U WN2=0.15U LN1=0.06U
+WN1=0.15U
M3 Y A GND GND NCH W=WN1 L=LN1
M2 Y B GND GND NCH W=WN2 L=LN2
M1 NET3 B Y VDD PCH W=WP2 L=LP2
M0 VDD A NET3 VDD PCH W=WP1 L=LP1
.ENDS S11000X8_SNOR


*******************************************************************************
* SUB-CIRCUIT NETLIST:                                                        *
*                                                                             *
* BLOCK: SA                                                                   *
* LAST TIME SAVED: DEC 14 16:50:07 2005                                       *
*******************************************************************************
.SUBCKT S11000X8_SA Q AWTD AWTI DL DLB PGB PREB SAE
MN11 Z4 AWTD GND GND NCH W=0.9U L=0.07U M=1
MN10 Z4 AWTT Q_B GND NCH W=0.9U L=0.07U M=1
MN8 Z6 AWTC Q_B GND NCH W=0.9U L=0.07U M=1
MN5 Z6 SOB GND GND NCH W=0.9U L=0.07U M=1
MN2 NS SAE GND GND NCH W=2.0U L=0.08U
MN1 DLB_IN DL_IN NS GND NCH W=2.0U L=0.18U
MN0 NS DLB_IN DL_IN GND NCH W=2.0U L=0.18U
MP14 Q_B AWTT Z5 VDD PCH W=1.8U L=0.07U M=1
MP5 Z3 AWTD VDD VDD PCH W=1.8U L=0.07U M=1
MP9 Q_B AWTC Z3 VDD PCH W=1.8U L=0.07U M=1
MP13 Z5 SOB VDD VDD PCH W=1.8U L=0.07U M=1
MP10 VDD PREB DL_IN VDD PCH W=1.0U L=0.1U
MP11 VDD PREB DLB_IN VDD PCH W=1.0U L=0.1U
MP8 DLB_IN PREB DL_IN VDD PCH W=1.2U L=0.12U
MP3 VDD DL_IN DLB_IN VDD PCH W=1.0U L=0.12U
MP2 DL_IN DLB_IN VDD VDD PCH W=1.0U L=0.12U
MP7 DLB PGB DLB_IN VDD PCH W=1.2U L=0.1U
MP6 DL_IN PGB DL VDD PCH W=1.2U L=0.1U
XI152 SO SOB NET096 S11000X8_SNOR LP1=0.07U WP1=2.4U LP2=0.07U WP2=2.4U LN2=0.07U WN2=0.8U
+LN1=0.07U WN1=0.8U
XI116 SOB SO NET098 S11000X8_SNOR LP1=0.07U WP1=2.4U LP2=0.07U WP2=2.4U LN2=0.07U WN2=0.8U
+LN1=0.07U WN1=0.8U
XI153 NET096 DL_IN S11000X8_SINV LP=0.06U WP=0.6U LN=0.06U WN=0.38U
XI148 NET098 DLB_IN S11000X8_SINV LP=0.06U WP=0.6U LN=0.06U WN=0.38U
XI61 AWTC AWTI S11000X8_SINV LP=0.06U WP=0.48U LN=0.06U WN=0.24U
XI62 AWTT AWTC S11000X8_SINV LP=0.06U WP=0.48U LN=0.06U WN=0.24U
XI160 Q Q_B S11000X8_SINV LP=0.07U WP=3.6U LN=0.07U WN=1.8U
**C0 DL_IN GND 4.360F
**C1 DLB_IN GND 4.037F
**C4 SO GND 1.951F
**C15 AWTC GND 1.969F
**C7 NET096 GND 2.576F
**C16 AWTT GND 2.078F
**C9 NET098 GND 2.471F
**C14 SOB GND 3.090F
**C17 Q_B GND 2.798F
.ENDS S11000X8_SA


*******************************************************************************
* SUB-CIRCUIT NETLIST:                                                        *
*                                                                             *
* BLOCK: TRANSGATE                                                            *
* LAST TIME SAVED: APR 15 08:43:26 2005                                       *
*******************************************************************************
.SUBCKT S11000X8_TRANSGATE Y A C CB LP=0.06U WP=0.3U LN=0.06U WN=0.15U
*.NOPIN VDD GND
M1 A C Y GND NCH W=WN L=LN
M0 Y CB A VDD PCH W=WP L=LP
.ENDS S11000X8_TRANSGATE


*******************************************************************************
* SUB-CIRCUIT NETLIST:                                                        *
*                                                                             *
* BLOCK: LH_DCLK                                                              *
* LAST TIME SAVED: DEC 14 16:50:06 2005                                       *
*******************************************************************************
.SUBCKT S11000X8_LH_DCLK Q CP D
**C2 P2 GND 1.709F
**C0 INCP GND 1.251F
XI26 D P2 CP INCP S11000X8_TRANSGATE LP=0.07U WP=0.5U LN=0.07U WN=0.5U
XI33 Q P2 S11000X8_SINV LP=0.07U WP=2U LN=0.07U WN=1U
XI29 INCP CP S11000X8_SINV LP=0.07U WP=0.3U LN=0.07U WN=0.3U
MN12 GND Q NET39 GND NCH W=0.15U L=0.07U
MN11 NET39 INCP P2 GND NCH W=0.15U L=0.07U
MP4 NET69 Q VDD VDD PCH W=0.28U L=0.07U
MP5 P2 CP NET69 VDD PCH W=0.28U L=0.07U
.ENDS S11000X8_LH_DCLK


*******************************************************************************
* SUB-CIRCUIT NETLIST:                                                        *
*                                                                             *
* BLOCK: IO_WRIN_M16                                                          *
* LAST TIME SAVED: SEP 28 10:50:28 2005                                       *
*******************************************************************************
.SUBCKT S11000X8_IO_WRIN_M16 DL DLB D DCLK DLEQB WPG
XLH_DCLK_M8 D1B DCLK D S11000X8_LH_DCLK
MP7 DL DLEQB VDD VDD PCH W=1U L=0.07U
MP8 VDD DLEQB DLB VDD PCH W=1U L=0.07U
MN2 VDD D1 D2B VDD PCH W=2.5U L=0.07U
MN0 VDD D1B D2 VDD PCH W=2.5U L=0.07U
MN5 DLB WPG D2B GND NCH W=2.5U L=0.07U
MN4 D2 WPG DL GND NCH W=2.5U L=0.07U
MN3 D2B D1 GND GND NCH W=5U L=0.07U
MN1 D2 D1B GND GND NCH W=5U L=0.07U
XI69 D1 D1B S11000X8_SINV LP=0.07U WP=2U LN=0.07U WN=1U
**C11 D1B GND 4.2F
**C6 D1 GND 2.6F
**C7 D2B GND 4.5F
**C8 D2 GND 4.5F
.ENDS S11000X8_IO_WRIN_M16


*******************************************************************************
* SUB-CIRCUIT NETLIST:                                                        *
*                                                                             *
* BLOCK: LH_BWEB                                                              *
* LAST TIME SAVED: DEC 14 16:50:07 2005                                       *
*******************************************************************************
.SUBCKT S11000X8_LH_BWEB Q CP D
MP5 P2 CP NET42 VDD PCH W=0.2U L=0.07U
MP4 NET42 Q VDD VDD PCH W=0.2U L=0.07U
XI26 D P2 CP INCP S11000X8_TRANSGATE LP=0.07U WP=0.5U LN=0.07U WN=0.5U
XI29 INCP CP S11000X8_SINV LP=0.07U WP=0.5U LN=0.07U WN=0.2U
XI24 Q P2 S11000X8_SINV LP=0.07U WP=1U LN=0.07U WN=0.4U
MN12 GND Q NET51 GND NCH W=0.2U L=0.07U
MN11 NET51 INCP P2 GND NCH W=0.2U L=0.07U
**C1 P2 GND 1.855F
**C0 INCP GND 1.980F
.ENDS S11000X8_LH_BWEB


*******************************************************************************
* SUB-CIRCUIT NETLIST:                                                        *
*                                                                             *
* BLOCK: SNAND                                                                *
* LAST TIME SAVED: APR 15 08:59:39 2005                                       *
*******************************************************************************
.SUBCKT S11000X8_SNAND Y A B LP2=0.06U WP2=0.3U LP1=0.06U WP1=0.3U LN1=0.06U WN1=0.3U LN2=0.06U
+WN2=0.3U
M0 NET9 B GND GND NCH W=WN2 L=LN2
M1 Y A NET9 GND NCH W=WN1 L=LN1
M2 VDD A Y VDD PCH W=WP1 L=LP1
M3 VDD B Y VDD PCH W=WP2 L=LP2
.ENDS S11000X8_SNAND


*******************************************************************************
* SUB-CIRCUIT NETLIST:                                                        *
*                                                                             *
* BLOCK: IO_RWCTRL_M16                                                        *
* LAST TIME SAVED: OCT  7 14:27:13 2005                                       *
*******************************************************************************
.SUBCKT S11000X8_IO_RWCTRL_M16 BLEQB DLEQB DLH PGB PREB SAE WPG BWEB DCLK GW_RB WLP
X_LH_BWEB BWEB_SU DLH BWEB S11000X8_LH_BWEB
XI289 PREB NET0100 NET161 S11000X8_SNOR LP1=0.07U WP1=1.2U LP2=0.07U WP2=1.2U LN2=0.07U
+WN2=0.4U LN1=0.07U WN1=0.4U
XI288 NET161 WLPCD2 NET163 S11000X8_SNOR LP1=0.07U WP1=0.35U LP2=0.07U WP2=0.35U LN2=0.07U
+WN2=0.3U LN1=0.07U WN1=0.3U
XI249 WPG GW_R NET089 S11000X8_SNOR LP1=0.07U WP1=1.0U LP2=0.07U WP2=1.0U LN2=0.07U
+WN2=0.4U LN1=0.07U WN1=0.4U
XI133 NET073 WLPCD0 NET_110 GW_R S11000X8_SNAND3 LP3=0.07U WP3=1.75U LP2=0.07U WP2=1.75U
+LP1=0.07U WP1=1.75U LN1=0.07U WN1=1.2U LN2=0.07U WN2=1.2U LN3=0.07U WN3=1.2U
XI250 PGB NET166 GW_R S11000X8_SNAND LP2=0.07U WP2=0.84U LP1=0.07U WP1=0.84U LN1=0.07U
+WN1=0.7U LN2=0.07U WN2=0.7U
XI305 NET90 NET073 WLPCD2 S11000X8_SNAND LP2=0.07U WP2=0.42U LP1=0.07U WP1=0.42U LN1=0.07U
+WN1=0.21U LN2=0.07U WN2=0.21U
XI307 BLEQB WLPCD0 WLPCD4 S11000X8_SNAND LP2=0.07U WP2=1.75U LP1=0.07U WP1=3.5U LN1=0.07U
+WN1=4U LN2=0.07U WN2=4U
XI306 NET289 WLPCD1 BWEB_SU S11000X8_SNAND LP2=0.07U WP2=0.3U LP1=0.07U WP1=0.3U LN1=0.07U
+WN1=0.15U LN2=0.07U WN2=0.15U
XI339 NET0219 DCLK WLPCD3 S11000X8_SNAND LP2=0.07U WP2=0.35U LP1=0.07U WP1=0.35U LN1=0.07U
+WN1=0.15U LN2=0.07U WN2=0.15U
XI186 NET163 NET93 NET073 S11000X8_SNAND LP2=0.07U WP2=0.35U LP1=0.07U WP1=0.35U LN1=0.07U
+WN1=0.15U LN2=0.07U WN2=0.15U
XI312 NET083 WLPCD0 S11000X8_SINV LP=0.10U WP=0.35U LN=0.10U WN=0.15U
XI73 GW_R GW_RB S11000X8_SINV LP=0.07U WP=1.4U LN=0.07U WN=0.7U
XI348 NET0100 GW_R S11000X8_SINV LP=0.07U WP=0.4U LN=0.07U WN=0.2U
XI329 NET0153 WLPCD3 S11000X8_SINV LP=0.07U WP=0.3U LN=0.07U WN=0.15U
XI217 WLPCD1 WLPCD0 S11000X8_SINV LP=0.07U WP=0.7U LN=0.07U WN=0.28U
XI340 DLH NET0219 S11000X8_SINV LP=0.07U WP=0.7U LN=0.07U WN=0.7U
XI287 NET93 NET135 S11000X8_SINV LP=0.07U WP=0.15U LN=0.07U WN=0.15U
XI327 NET141 NET139 S11000X8_SINV LP=0.18U WP=0.35U LN=0.18U WN=0.15U
XI286 NET135 PGB S11000X8_SINV LP=0.07U WP=0.15U LN=0.07U WN=0.15U
XI134 SAE NET073 S11000X8_SINV LP=0.15U WP=0.7U LN=0.1U WN=0.35U
XI321 NET062 NET289 S11000X8_SINV LP=0.07U WP=0.30U LN=0.07U WN=0.15U
XI264 WLPCD4 NET0153 S11000X8_SINV LP=0.07U WP=0.35U LN=0.07U WN=0.35U
XI322 NET089 NET062 S11000X8_SINV LP=0.07U WP=0.6U LN=0.07U WN=0.2U
XI185 NET166 NET90 S11000X8_SINV LP=0.07U WP=0.28U LN=0.07U WN=0.28U
XI299 WLPCD2 NET100 S11000X8_SINV LP=0.07U WP=0.9U LN=0.07U WN=0.3U
XI298 NET100 WLPCD1 S11000X8_SINV LP=0.07U WP=0.35U LN=0.07U WN=0.35U
XI207 NET_110 NET141 S11000X8_SINV LP=0.10U WP=0.7U LN=0.10U WN=0.28U
XI334 DLEQB NET095 S11000X8_SINV LP=0.07U WP=0.6U LN=0.07U WN=0.3U
XI337 WLPCD3 WLPCD2 S11000X8_SINV LP=0.07U WP=0.5U LN=0.07U WN=0.25U
XI128 WLPCD0 NET085 S11000X8_SINV LP=0.07U WP=1.6U LN=0.07U WN=0.8U
XI315 NET085 WLP S11000X8_SINV LP=0.07U WP=0.28U LN=0.07U WN=0.15U
XI333 NET095 BLEQB S11000X8_SINV LP=0.07U WP=0.28U LN=0.07U WN=0.15U
XI311 NET088 NET083 S11000X8_SINV LP=0.35U WP=0.35U LN=0.35U WN=0.15U
XI310 NET139 NET088 S11000X8_SINV LP=0.35U WP=0.35U LN=0.35U WN=0.15U
**C50 WLPCD4 GND 2.8F
**C51 NET135 GND 0.45F
**C17 WLPCD1 GND 1.92F
**C33 NET139 GND 1F
**C15 NET0100 GND 0.57F
**C31 NET_110 GND 2.8F
**C13 NET073 GND 2.95F
**C10 NET095 GND 1.2F
**C11 NET0219 GND 1F
**C48 WLPCD2 GND 2.96F
**C47 NET166 GND 1F
**C26 BWEB_SU GND 1.6F
**C42 NET161 GND 2.1F
**C27 NET93 GND 1.6F
**C43 NET163 GND 0.85F
**C24 NET062 GND 0.7F